Version 4
SHEET 1 880 680
WIRE 32 64 -32 64
WIRE 144 64 112 64
WIRE 272 64 224 64
WIRE -32 112 -32 64
WIRE 272 112 272 64
WIRE -32 240 -32 192
WIRE 272 240 272 176
FLAG -32 240 0
FLAG 272 240 0
SYMBOL res 240 48 R90
WINDOW 0 0 56 VBottom 2
WINDOW 3 32 56 VTop 2
SYMATTR InstName R1
SYMATTR Value 50
SYMBOL res 128 48 R90
WINDOW 0 0 56 VBottom 2
WINDOW 3 32 56 VTop 2
SYMATTR InstName R2
SYMATTR Value 50
SYMBOL voltage -32 96 R0
SYMATTR InstName V1
SYMBOL zener 256 112 R0
SYMATTR InstName D1
SYMATTR Value D1N748
TEXT 40 288 Left 2 !.dc V1 -4.5 1.2 0.1
