Version 4
SHEET 1 880 680
WIRE 304 -16 192 -16
WIRE 192 112 192 64
WIRE 128 160 48 160
WIRE 192 256 192 208
WIRE 48 304 48 240
FLAG 192 256 0
FLAG 304 64 0
FLAG 48 384 0
SYMBOL npn 128 112 R0
SYMATTR InstName Q1
SYMATTR Value BC547B
SYMBOL res 32 144 R0
SYMATTR InstName Rb
SYMATTR Value 33k
SYMBOL res 176 -32 R0
SYMATTR InstName Rc
SYMATTR Value 150
SYMBOL voltage 48 288 R0
SYMATTR InstName V1
SYMATTR Value 2.35
SYMBOL voltage 304 -32 R0
SYMATTR InstName V2
SYMATTR Value 1
TEXT 272 240 Left 2 !.dc V2 1m 6 0.01
