Version 4
SHEET 1 880 680
WIRE 304 32 192 32
WIRE 128 160 48 160
FLAG 192 208 0
FLAG 304 112 0
FLAG 48 320 0
SYMBOL npn 128 112 R0
SYMATTR InstName Q1
SYMBOL res 32 144 R0
SYMATTR InstName R1
SYMBOL res 176 16 R0
SYMATTR InstName R2
SYMBOL voltage 48 224 R0
SYMATTR InstName V1
SYMBOL voltage 304 16 R0
SYMATTR InstName V2
